
     RDKit          3D

133136  0  0  0  0  0  0  0  0999 V2000
   -3.4878   -7.2374   -0.6471 C   0  0  0  0  0  0  0  0  0  0  0  0
   -3.3016   -5.9198    0.0999 C   0  0  2  0  0  0  0  0  0  0  0  0
   -3.2701   -4.7100   -0.8516 C   0  0  0  0  0  0  0  0  0  0  0  0
   -4.6005   -4.4066   -1.4823 C   0  0  0  0  0  0  0  0  0  0  0  0
   -5.4698   -3.4488   -1.1232 C   0  0  0  0  0  0  0  0  0  0  0  0
   -5.3269   -2.5070   -0.0388 C   0  0  0  0  0  0  0  0  0  0  0  0
   -4.3512   -1.5890    0.0497 C   0  0  0  0  0  0  0  0  0  0  0  0
   -4.2597   -0.5707    1.1559 C   0  0  1  0  0  0  0  0  0  0  0  0
   -2.9980   -0.7408    2.0536 C   0  0  1  0  0  0  0  0  0  0  0  0
   -1.6679   -0.5489    1.2760 C   0  0  0  0  0  0  0  0  0  0  0  0
   -0.3844   -0.7293    2.1408 C   0  0  1  0  0  0  0  0  0  0  0  0
    0.6891   -1.6282    1.4463 C   0  0  1  0  0  0  0  0  0  0  0  0
    0.2342   -3.1100    1.2520 C   0  0  2  0  0  0  0  0  0  0  0  0
    0.0730   -3.8718    2.5939 C   0  0  1  0  0  0  0  0  0  0  0  0
   -0.4910   -5.2817    2.4100 C   0  0  0  0  0  0  0  0  0  0  0  0
   -1.8941   -5.2104    1.8798 C   0  0  0  0  0  0  0  0  0  0  0  0
   -2.7694   -4.4996    2.3538 O   0  0  0  0  0  0  0  0  0  0  0  0
   -2.0322   -6.0069    0.7849 O   0  0  0  0  0  0  0  0  0  0  0  0
    1.3591   -4.0110    3.2176 O   0  0  0  0  0  0  0  0  0  0  0  0
    1.2549   -3.8293    0.5143 O   0  0  0  0  0  0  0  0  0  0  0  0
    0.8598   -4.0952   -0.8297 C   0  0  0  0  0  0  0  0  0  0  0  0
    0.9736   -1.0290    0.1640 O   0  0  0  0  0  0  0  0  0  0  0  0
    2.3789   -0.9358   -0.1095 C   0  0  1  0  0  0  0  0  0  0  0  0
    2.5708   -0.5167   -1.5791 C   0  0  1  0  0  0  0  0  0  0  0  0
    4.0647   -0.2132   -1.8966 C   0  0  2  0  0  0  0  0  0  0  0  0
    4.6693    0.7731   -0.8427 C   0  0  1  0  0  0  0  0  0  0  0  0
    4.3507    0.1890    0.5605 C   0  0  2  0  0  0  0  0  0  0  0  0
    2.9405    0.0657    0.7416 O   0  0  0  0  0  0  0  0  0  0  0  0
    4.8598    1.0537    1.7063 C   0  0  0  0  0  0  0  0  0  0  0  0
    6.0970    0.8572   -0.9636 O   0  0  0  0  0  0  0  0  0  0  0  0
    6.5975    2.0977   -1.4576 C   0  0  1  0  0  0  0  0  0  0  0  0
    6.6640    3.1769   -0.3719 C   0  0  0  0  0  0  0  0  0  0  0  0
    7.8149    4.1527   -0.6186 C   0  0  1  0  0  0  0  0  0  0  0  0
    9.1490    3.3610   -0.6163 C   0  0  2  0  0  0  0  0  0  0  0  0
    8.9553    1.9251   -1.1499 C   0  0  1  0  0  0  0  0  0  0  0  0
    7.8715    1.8800   -2.0779 O   0  0  0  0  0  0  0  0  0  0  0  0
   10.2089    1.4308   -1.8615 C   0  0  0  0  0  0  0  0  0  0  0  0
    9.6687    3.2774    0.7218 O   0  0  0  0  0  0  0  0  0  0  0  0
    7.6176    4.9524   -1.9121 C   0  0  0  0  0  0  0  0  0  0  0  0
    7.8388    5.0920    0.4741 O   0  0  0  0  0  0  0  0  0  0  0  0
    4.1596    0.0848   -3.3596 N   0  0  0  0  0  0  0  0  0  0  0  0
    5.4843   -0.1696   -3.9192 C   0  0  0  0  0  0  0  0  0  0  0  0
    3.6361    1.3803   -3.7769 C   0  0  0  0  0  0  0  0  0  0  0  0
    2.1186   -1.5396   -2.4869 O   0  0  0  0  0  0  0  0  0  0  0  0
    0.2044    0.6694    2.4375 C   0  0  0  0  0  0  0  0  0  0  0  0
    1.3010    0.6611    3.4737 C   0  0  0  0  0  0  0  0  0  0  0  0
    1.4663   -0.2277    4.3024 O   0  0  0  0  0  0  0  0  0  0  0  0
   -3.1044    0.2265    3.2427 C   0  0  0  0  0  0  0  0  0  0  0  0
   -4.2207    0.7202    0.5388 O   0  0  0  0  0  0  0  0  0  0  0  0
   -5.4110    1.4766    0.7480 C   0  0  1  0  0  0  0  0  0  0  0  0
   -5.1896    2.8458    0.1117 C   0  0  0  0  0  0  0  0  0  0  0  0
   -6.4327    3.7191    0.2433 C   0  0  0  0  0  0  0  0  0  0  0  0
   -7.6773    2.9809   -0.2922 C   0  0  1  0  0  0  0  0  0  0  0  0
   -7.7565    1.5696    0.3642 C   0  0  2  0  0  0  0  0  0  0  0  0
   -6.5364    0.8452    0.1478 O   0  0  0  0  0  0  0  0  0  0  0  0
   -8.8774    0.7176   -0.2253 C   0  0  0  0  0  0  0  0  0  0  0  0
   -8.9405    3.7458   -0.1948 N   0  0  0  0  0  0  0  0  0  0  0  0
   -8.9862    4.8637   -1.1373 C   0  0  0  0  0  0  0  0  0  0  0  0
   -9.2847    4.1989    1.1504 C   0  0  0  0  0  0  0  0  0  0  0  0
   -2.6874   -7.3896   -1.3797 H   0  0  0  0  0  0  0  0  0  0  0  0
   -3.4357   -8.0795    0.0519 H   0  0  0  0  0  0  0  0  0  0  0  0
   -4.4507   -7.2795   -1.1641 H   0  0  0  0  0  0  0  0  0  0  0  0
   -4.1143   -5.8232    0.8314 H   0  0  0  0  0  0  0  0  0  0  0  0
   -2.8800   -3.8389   -0.3176 H   0  0  0  0  0  0  0  0  0  0  0  0
   -2.5355   -4.8851   -1.6485 H   0  0  0  0  0  0  0  0  0  0  0  0
   -4.8814   -5.0495   -2.3153 H   0  0  0  0  0  0  0  0  0  0  0  0
   -6.4200   -3.3830   -1.6524 H   0  0  0  0  0  0  0  0  0  0  0  0
   -6.1241   -2.5239    0.7017 H   0  0  0  0  0  0  0  0  0  0  0  0
   -3.6006   -1.5250   -0.7333 H   0  0  0  0  0  0  0  0  0  0  0  0
   -5.1424   -0.6627    1.8046 H   0  0  0  0  0  0  0  0  0  0  0  0
   -3.0083   -1.7609    2.4590 H   0  0  0  0  0  0  0  0  0  0  0  0
   -1.6610    0.4425    0.8049 H   0  0  0  0  0  0  0  0  0  0  0  0
   -1.6557   -1.2594    0.4452 H   0  0  0  0  0  0  0  0  0  0  0  0
   -0.6475   -1.1985    3.0936 H   0  0  0  0  0  0  0  0  0  0  0  0
    1.6019   -1.6359    2.0543 H   0  0  0  0  0  0  0  0  0  0  0  0
   -0.7061   -3.1391    0.6933 H   0  0  0  0  0  0  0  0  0  0  0  0
   -0.5685   -3.3185    3.2852 H   0  0  0  0  0  0  0  0  0  0  0  0
    0.1473   -5.8727    1.7430 H   0  0  0  0  0  0  0  0  0  0  0  0
   -0.5109   -5.8214    3.3638 H   0  0  0  0  0  0  0  0  0  0  0  0
    1.9833   -4.2127    2.4915 H   0  0  0  0  0  0  0  0  0  0  0  0
    0.0895   -4.8713   -0.8397 H   0  0  0  0  0  0  0  0  0  0  0  0
    0.4811   -3.1966   -1.3224 H   0  0  0  0  0  0  0  0  0  0  0  0
    1.7312   -4.4634   -1.3771 H   0  0  0  0  0  0  0  0  0  0  0  0
    2.8527   -1.9078    0.0734 H   0  0  0  0  0  0  0  0  0  0  0  0
    1.9507    0.3686   -1.7618 H   0  0  0  0  0  0  0  0  0  0  0  0
    4.5932   -1.1706   -1.7701 H   0  0  0  0  0  0  0  0  0  0  0  0
    4.1924    1.7568   -0.9408 H   0  0  0  0  0  0  0  0  0  0  0  0
    4.8199   -0.7980    0.6750 H   0  0  0  0  0  0  0  0  0  0  0  0
    5.9517    1.0575    1.7487 H   0  0  0  0  0  0  0  0  0  0  0  0
    4.4955    2.0824    1.6160 H   0  0  0  0  0  0  0  0  0  0  0  0
    4.4899    0.6732    2.6651 H   0  0  0  0  0  0  0  0  0  0  0  0
    5.9556    2.4553   -2.2643 H   0  0  0  0  0  0  0  0  0  0  0  0
    6.8073    2.7189    0.6129 H   0  0  0  0  0  0  0  0  0  0  0  0
    5.7022    3.6985   -0.2906 H   0  0  0  0  0  0  0  0  0  0  0  0
    9.8988    3.9077   -1.1996 H   0  0  0  0  0  0  0  0  0  0  0  0
    8.7508    1.2292   -0.3250 H   0  0  0  0  0  0  0  0  0  0  0  0
   10.4324    2.0492   -2.7379 H   0  0  0  0  0  0  0  0  0  0  0  0
   10.0591    0.4099   -2.2294 H   0  0  0  0  0  0  0  0  0  0  0  0
   11.0756    1.4378   -1.1937 H   0  0  0  0  0  0  0  0  0  0  0  0
    9.0972    3.8494    1.2745 H   0  0  0  0  0  0  0  0  0  0  0  0
    8.4038    5.7082   -2.0229 H   0  0  0  0  0  0  0  0  0  0  0  0
    6.6683    5.4996   -1.8837 H   0  0  0  0  0  0  0  0  0  0  0  0
    7.6274    4.3263   -2.8083 H   0  0  0  0  0  0  0  0  0  0  0  0
    8.4999    5.7777    0.2623 H   0  0  0  0  0  0  0  0  0  0  0  0
    5.4312   -0.1786   -5.0140 H   0  0  0  0  0  0  0  0  0  0  0  0
    5.8571   -1.1566   -3.6248 H   0  0  0  0  0  0  0  0  0  0  0  0
    6.2221    0.5797   -3.6342 H   0  0  0  0  0  0  0  0  0  0  0  0
    4.1889    2.2230   -3.3588 H   0  0  0  0  0  0  0  0  0  0  0  0
    3.6693    1.4693   -4.8691 H   0  0  0  0  0  0  0  0  0  0  0  0
    2.5839    1.4968   -3.5024 H   0  0  0  0  0  0  0  0  0  0  0  0
    2.5370   -1.3019   -3.3405 H   0  0  0  0  0  0  0  0  0  0  0  0
   -0.5645    1.3513    2.8148 H   0  0  0  0  0  0  0  0  0  0  0  0
    0.6085    1.1238    1.5266 H   0  0  0  0  0  0  0  0  0  0  0  0
    1.9327    1.5656    3.4911 H   0  0  0  0  0  0  0  0  0  0  0  0
   -2.3277    0.0359    3.9889 H   0  0  0  0  0  0  0  0  0  0  0  0
   -4.0670    0.1096    3.7526 H   0  0  0  0  0  0  0  0  0  0  0  0
   -3.0199    1.2693    2.9199 H   0  0  0  0  0  0  0  0  0  0  0  0
   -5.5760    1.5879    1.8279 H   0  0  0  0  0  0  0  0  0  0  0  0
   -4.9498    2.7198   -0.9523 H   0  0  0  0  0  0  0  0  0  0  0  0
   -4.3234    3.3411    0.5659 H   0  0  0  0  0  0  0  0  0  0  0  0
   -6.2686    4.6559   -0.3002 H   0  0  0  0  0  0  0  0  0  0  0  0
   -6.5615    3.9758    1.3014 H   0  0  0  0  0  0  0  0  0  0  0  0
   -7.4885    2.7936   -1.3602 H   0  0  0  0  0  0  0  0  0  0  0  0
   -7.9140    1.6483    1.4469 H   0  0  0  0  0  0  0  0  0  0  0  0
   -9.8630    1.1528   -0.0372 H   0  0  0  0  0  0  0  0  0  0  0  0
   -8.7470    0.5935   -1.3060 H   0  0  0  0  0  0  0  0  0  0  0  0
   -8.8580   -0.2882    0.2091 H   0  0  0  0  0  0  0  0  0  0  0  0
   -8.7923    4.5207   -2.1596 H   0  0  0  0  0  0  0  0  0  0  0  0
   -8.2648    5.6502   -0.8921 H   0  0  0  0  0  0  0  0  0  0  0  0
   -9.9859    5.3129   -1.1474 H   0  0  0  0  0  0  0  0  0  0  0  0
   -8.5987    4.9655    1.5259 H   0  0  0  0  0  0  0  0  0  0  0  0
  -10.2946    4.6254    1.1569 H   0  0  0  0  0  0  0  0  0  0  0  0
   -9.3033    3.3689    1.8629 H   0  0  0  0  0  0  0  0  0  0  0  0
  1  2  1  0
  2  3  1  0
  3  4  1  0
  4  5  2  0
  5  6  1  0
  6  7  2  0
  7  8  1  0
  8  9  1  0
  9 10  1  0
 10 11  1  0
 11 12  1  0
 12 13  1  0
 13 14  1  0
 14 15  1  0
 15 16  1  0
 16 17  2  0
 16 18  1  0
 14 19  1  0
 13 20  1  0
 20 21  1  0
 12 22  1  0
 22 23  1  0
 23 24  1  0
 24 25  1  0
 25 26  1  0
 26 27  1  0
 27 28  1  0
 27 29  1  0
 26 30  1  0
 30 31  1  0
 31 32  1  0
 32 33  1  0
 33 34  1  0
 34 35  1  0
 35 36  1  0
 35 37  1  0
 34 38  1  0
 33 39  1  0
 33 40  1  1
 25 41  1  0
 41 42  1  0
 41 43  1  0
 24 44  1  0
 11 45  1  0
 45 46  1  0
 46 47  2  0
  9 48  1  0
  8 49  1  0
 49 50  1  0
 50 51  1  0
 51 52  1  0
 52 53  1  0
 53 54  1  0
 54 55  1  0
 54 56  1  0
 53 57  1  0
 57 58  1  0
 57 59  1  0
 18  2  1  0
 28 23  1  0
 36 31  1  0
 55 50  1  0
  1 60  1  0
  1 61  1  0
  1 62  1  0
  2 63  1  1
  3 64  1  0
  3 65  1  0
  4 66  1  0
  5 67  1  0
  6 68  1  0
  7 69  1  0
  8 70  1  1
  9 71  1  1
 10 72  1  0
 10 73  1  0
 11 74  1  1
 12 75  1  1
 13 76  1  6
 14 77  1  1
 15 78  1  0
 15 79  1  0
 19 80  1  0
 21 81  1  0
 21 82  1  0
 21 83  1  0
 23 84  1  6
 24 85  1  6
 25 86  1  6
 26 87  1  1
 27 88  1  6
 29 89  1  0
 29 90  1  0
 29 91  1  0
 31 92  1  6
 32 93  1  0
 32 94  1  0
 34 95  1  6
 35 96  1  1
 37 97  1  0
 37 98  1  0
 37 99  1  0
 38100  1  0
 39101  1  0
 39102  1  0
 39103  1  0
 40104  1  0
 42105  1  0
 42106  1  0
 42107  1  0
 43108  1  0
 43109  1  0
 43110  1  0
 44111  1  0
 45112  1  0
 45113  1  0
 46114  1  0
 48115  1  0
 48116  1  0
 48117  1  0
 50118  1  1
 51119  1  0
 51120  1  0
 52121  1  0
 52122  1  0
 53123  1  6
 54124  1  1
 56125  1  0
 56126  1  0
 56127  1  0
 58128  1  0
 58129  1  0
 58130  1  0
 59131  1  0
 59132  1  0
 59133  1  0
M  END
