
     RDKit          3D

 60 62  0  0  0  0  0  0  0  0999 V2000
   -1.2518    5.4759    1.1635 C   0  0  0  0  0  0  0  0  0  0  0  0
   -2.0396    4.3733    0.7496 O   0  0  0  0  0  0  0  0  0  0  0  0
   -1.5380    3.2926    0.0465 C   0  0  0  0  0  0  0  0  0  0  0  0
   -0.3298    3.2832   -0.2420 O   0  0  0  0  0  0  0  0  0  0  0  0
   -2.4064    2.1612   -0.3635 C   0  0  2  0  0  0  0  0  0  0  0  0
   -3.2690    1.7535    0.7514 C   0  0  0  0  0  0  0  0  0  0  0  0
   -4.5132    0.4826    0.2628 S   0  0  0  0  0  0  0  0  0  0  0  0
   -3.5797   -0.9136   -0.2490 C   0  0  0  0  0  0  0  0  0  0  0  0
   -4.1768   -2.2394   -0.3789 C   0  0  0  0  0  0  0  0  0  0  0  0
   -3.2144   -3.2468   -0.6732 C   0  0  0  0  0  0  0  0  0  0  0  0
   -3.6139   -4.5427   -0.7668 C   0  0  0  0  0  0  0  0  0  0  0  0
   -4.9317   -4.8815   -0.5834 C   0  0  0  0  0  0  0  0  0  0  0  0
   -5.8486   -3.9140   -0.3043 C   0  0  0  0  0  0  0  0  0  0  0  0
   -5.4722   -2.5917   -0.2018 C   0  0  0  0  0  0  0  0  0  0  0  0
   -1.8014   -2.9226   -0.8719 C   0  0  0  0  0  0  0  0  0  0  0  0
   -0.9108   -3.5222   -0.1835 O   0  0  0  0  0  0  0  0  0  0  0  0
   -1.3542   -1.9679   -1.7811 O   0  0  0  0  0  0  0  0  0  0  0  0
    0.0550   -1.6167   -1.8484 C   0  0  0  0  0  0  0  0  0  0  0  0
    0.3309   -0.7682   -0.6427 C   0  0  1  0  0  0  0  0  0  0  0  0
    1.6813   -0.4004   -0.4171 N   0  0  0  0  0  0  0  0  0  0  0  0
    2.5184   -1.0142    0.5395 C   0  0  0  0  0  0  0  0  0  0  0  0
    1.9803   -1.9500    1.2145 O   0  0  0  0  0  0  0  0  0  0  0  0
    3.9031   -0.7148    0.8466 C   0  0  2  0  0  0  0  0  0  0  0  0
    4.1844   -0.5509    2.3196 C   0  0  0  0  0  0  0  0  0  0  0  0
    4.2887    0.9557    2.4455 C   0  0  0  0  0  0  0  0  0  0  0  0
    4.8290    1.4396    1.1387 C   0  0  0  0  0  0  0  0  0  0  0  0
    4.5026    0.3806    0.1725 N   0  0  0  0  0  0  0  0  0  0  0  0
    4.7760    0.4862   -1.2150 C   0  0  0  0  0  0  0  0  0  0  0  0
    5.4157    1.6951   -1.8219 C   0  0  0  0  0  0  0  0  0  0  0  0
    4.4952   -0.4421   -2.0343 O   0  0  0  0  0  0  0  0  0  0  0  0
   -0.5485    0.3889   -0.3960 C   0  0  0  0  0  0  0  0  0  0  0  0
   -0.2747    0.9883    0.7362 O   0  0  0  0  0  0  0  0  0  0  0  0
   -1.5890    1.0911   -0.9788 N   0  0  0  0  0  0  0  0  0  0  0  0
   -0.7923    6.0155    0.3289 H   0  0  0  0  0  0  0  0  0  0  0  0
   -1.9461    6.1450    1.7275 H   0  0  0  0  0  0  0  0  0  0  0  0
   -0.4973    5.1484    1.9149 H   0  0  0  0  0  0  0  0  0  0  0  0
   -3.1038    2.5172   -1.1885 H   0  0  0  0  0  0  0  0  0  0  0  0
   -3.7860    2.6421    1.1373 H   0  0  0  0  0  0  0  0  0  0  0  0
   -2.6311    1.2545    1.5390 H   0  0  0  0  0  0  0  0  0  0  0  0
   -2.7680   -1.0514    0.5429 H   0  0  0  0  0  0  0  0  0  0  0  0
   -3.1178   -0.6488   -1.2442 H   0  0  0  0  0  0  0  0  0  0  0  0
   -2.8857   -5.3237   -0.9652 H   0  0  0  0  0  0  0  0  0  0  0  0
   -5.2419   -5.9256   -0.6614 H   0  0  0  0  0  0  0  0  0  0  0  0
   -6.8899   -4.1677   -0.1604 H   0  0  0  0  0  0  0  0  0  0  0  0
   -6.1767   -1.7853    0.0214 H   0  0  0  0  0  0  0  0  0  0  0  0
    0.1388   -0.9964   -2.7477 H   0  0  0  0  0  0  0  0  0  0  0  0
    0.6458   -2.5218   -1.7975 H   0  0  0  0  0  0  0  0  0  0  0  0
    0.0901   -1.4870    0.2290 H   0  0  0  0  0  0  0  0  0  0  0  0
    2.1405    0.3888   -0.9757 H   0  0  0  0  0  0  0  0  0  0  0  0
    4.5041   -1.6290    0.5466 H   0  0  0  0  0  0  0  0  0  0  0  0
    5.1260   -1.0430    2.6354 H   0  0  0  0  0  0  0  0  0  0  0  0
    3.3911   -0.9542    2.9724 H   0  0  0  0  0  0  0  0  0  0  0  0
    4.9958    1.1521    3.3082 H   0  0  0  0  0  0  0  0  0  0  0  0
    3.2768    1.3580    2.6722 H   0  0  0  0  0  0  0  0  0  0  0  0
    4.4570    2.4141    0.8116 H   0  0  0  0  0  0  0  0  0  0  0  0
    5.9429    1.4253    1.1949 H   0  0  0  0  0  0  0  0  0  0  0  0
    6.5174    1.5594   -1.7928 H   0  0  0  0  0  0  0  0  0  0  0  0
    5.1285    2.6242   -1.2727 H   0  0  0  0  0  0  0  0  0  0  0  0
    5.0648    1.8365   -2.8548 H   0  0  0  0  0  0  0  0  0  0  0  0
   -1.8799    1.0044   -1.9394 H   0  0  0  0  0  0  0  0  0  0  0  0
  1  2  1  0
  2  3  1  0
  3  4  2  0
  3  5  1  0
  5  6  1  0
  6  7  1  0
  7  8  1  0
  8  9  1  0
  9 10  2  0
 10 11  1  0
 11 12  2  0
 12 13  1  0
 13 14  2  0
 10 15  1  0
 15 16  2  0
 15 17  1  0
 17 18  1  0
 18 19  1  0
 19 20  1  0
 20 21  1  0
 21 22  2  0
 21 23  1  0
 23 24  1  0
 24 25  1  0
 25 26  1  0
 26 27  1  0
 27 28  1  0
 28 29  1  0
 28 30  2  0
 19 31  1  0
 31 32  2  0
 31 33  1  0
 33  5  1  0
 14  9  1  0
 27 23  1  0
  1 34  1  0
  1 35  1  0
  1 36  1  0
  5 37  1  6
  6 38  1  0
  6 39  1  0
  8 40  1  0
  8 41  1  0
 11 42  1  0
 12 43  1  0
 13 44  1  0
 14 45  1  0
 18 46  1  0
 18 47  1  0
 19 48  1  1
 20 49  1  0
 23 50  1  6
 24 51  1  0
 24 52  1  0
 25 53  1  0
 25 54  1  0
 26 55  1  0
 26 56  1  0
 29 57  1  0
 29 58  1  0
 29 59  1  0
 33 60  1  0
M  END
