
     RDKit          3D

117121  0  0  0  0  0  0  0  0999 V2000
    4.0083    0.0849   -6.3416 C   0  0  0  0  0  0  0  0  0  0  0  0
    4.3131    0.5716   -4.9990 N   0  0  0  0  0  0  0  0  0  0  0  0
    5.2183   -0.3463   -4.2716 C   0  0  0  0  0  0  0  0  0  0  0  0
    4.5397   -1.1941   -3.1811 C   0  0  0  0  0  0  0  0  0  0  0  0
    3.8483   -0.3543   -2.1977 N   0  0  0  0  0  0  0  0  0  0  0  0
    3.2706    0.8976   -2.7204 C   0  0  0  0  0  0  0  0  0  0  0  0
    3.0688    0.8408   -4.2472 C   0  0  0  0  0  0  0  0  0  0  0  0
    3.2471   -1.0216   -1.1640 N   0  0  0  0  0  0  0  0  0  0  0  0
    2.9312   -0.3178   -0.1162 C   0  0  0  0  0  0  0  0  0  0  0  0
    2.2063   -0.9115    1.0496 C   0  0  0  0  0  0  0  0  0  0  0  0
    1.8209   -0.0274    2.0802 C   0  0  0  0  0  0  0  0  0  0  0  0
    2.2261    1.2756    1.9131 O   0  0  0  0  0  0  0  0  0  0  0  0
    1.0518   -0.4551    3.2049 C   0  0  0  0  0  0  0  0  0  0  0  0
    0.5517    0.3620    4.2541 C   0  0  0  0  0  0  0  0  0  0  0  0
    0.6772    1.7789    4.5192 C   0  0  0  0  0  0  0  0  0  0  0  0
    1.4629    2.5127    3.9377 O   0  0  0  0  0  0  0  0  0  0  0  0
   -0.3134    2.1528    5.6271 C   0  0  1  0  0  0  0  0  0  0  0  0
    0.3633    2.9925    6.7049 C   0  0  0  0  0  0  0  0  0  0  0  0
   -1.5342    2.7734    5.2230 O   0  0  0  0  0  0  0  0  0  0  0  0
   -1.4461    3.5858    4.1273 C   0  0  0  0  0  0  0  0  0  0  0  0
   -2.3295    3.5113    3.1261 C   0  0  0  0  0  0  0  0  0  0  0  0
   -2.2511    4.3179    1.8576 C   0  0  2  0  0  0  0  0  0  0  0  0
   -3.5466    4.8845    1.6471 O   0  0  0  0  0  0  0  0  0  0  0  0
   -3.5125    6.1430    0.9901 C   0  0  0  0  0  0  0  0  0  0  0  0
   -1.7636    3.4918    0.6230 C   0  0  1  0  0  0  0  0  0  0  0  0
   -0.3003    3.0835    0.8347 C   0  0  0  0  0  0  0  0  0  0  0  0
   -2.6695    2.2663    0.2704 C   0  0  1  0  0  0  0  0  0  0  0  0
   -3.9398    2.7741   -0.2040 O   0  0  0  0  0  0  0  0  0  0  0  0
   -5.0371    2.5439    0.5721 C   0  0  0  0  0  0  0  0  0  0  0  0
   -6.2377    3.1759   -0.0634 C   0  0  0  0  0  0  0  0  0  0  0  0
   -5.0697    1.9157    1.6194 O   0  0  0  0  0  0  0  0  0  0  0  0
   -2.0963    1.3219   -0.8448 C   0  0  2  0  0  0  0  0  0  0  0  0
   -1.9091    2.0624   -2.1763 C   0  0  0  0  0  0  0  0  0  0  0  0
   -3.0037    0.0704   -1.0192 C   0  0  2  0  0  0  0  0  0  0  0  0
   -3.0641   -0.6195    0.2306 O   0  0  0  0  0  0  0  0  0  0  0  0
   -2.6076   -0.9178   -2.1590 C   0  0  2  0  0  0  0  0  0  0  0  0
   -3.6891   -2.0105   -2.2627 C   0  0  0  0  0  0  0  0  0  0  0  0
   -1.1898   -1.5326   -1.9719 C   0  0  1  0  0  0  0  0  0  0  0  0
   -1.1671   -2.1996   -0.6996 O   0  0  0  0  0  0  0  0  0  0  0  0
   -0.7487   -2.5093   -3.1022 C   0  0  1  0  0  0  0  0  0  0  0  0
   -0.7907   -1.8549   -4.4855 C   0  0  0  0  0  0  0  0  0  0  0  0
    0.6611   -3.0175   -2.8590 C   0  0  0  0  0  0  0  0  0  0  0  0
    0.9844   -4.3194   -2.8333 C   0  0  0  0  0  0  0  0  0  0  0  0
    2.3234   -4.8088   -2.6072 C   0  0  0  0  0  0  0  0  0  0  0  0
    2.9664   -4.8746   -1.4277 C   0  0  0  0  0  0  0  0  0  0  0  0
    4.3320   -5.4627   -1.2602 C   0  0  0  0  0  0  0  0  0  0  0  0
    2.3134   -4.4570   -0.1571 C   0  0  0  0  0  0  0  0  0  0  0  0
    1.8555   -5.2982    0.6053 O   0  0  0  0  0  0  0  0  0  0  0  0
    2.3441   -3.1076    0.0455 N   0  0  0  0  0  0  0  0  0  0  0  0
    1.8961   -2.2863    1.1206 C   0  0  0  0  0  0  0  0  0  0  0  0
    1.1617   -2.7169    2.2438 C   0  0  0  0  0  0  0  0  0  0  0  0
    0.7832   -4.0311    2.4171 O   0  0  0  0  0  0  0  0  0  0  0  0
    0.7145   -1.8325    3.2873 C   0  0  0  0  0  0  0  0  0  0  0  0
   -0.0685   -2.2719    4.4175 C   0  0  0  0  0  0  0  0  0  0  0  0
   -0.4224   -3.5964    4.5641 O   0  0  0  0  0  0  0  0  0  0  0  0
   -0.5350   -1.4249    5.4344 C   0  0  0  0  0  0  0  0  0  0  0  0
   -1.3727   -1.9450    6.5640 C   0  0  0  0  0  0  0  0  0  0  0  0
   -0.2225   -0.0916    5.3098 C   0  0  0  0  0  0  0  0  0  0  0  0
   -0.6223    0.8588    6.2159 O   0  0  0  0  0  0  0  0  0  0  0  0
    3.5087   -0.8903   -6.3231 H   0  0  0  0  0  0  0  0  0  0  0  0
    3.3633    0.7945   -6.8718 H   0  0  0  0  0  0  0  0  0  0  0  0
    4.9254   -0.0078   -6.9339 H   0  0  0  0  0  0  0  0  0  0  0  0
    5.7642   -1.0025   -4.9605 H   0  0  0  0  0  0  0  0  0  0  0  0
    5.9801    0.2801   -3.7896 H   0  0  0  0  0  0  0  0  0  0  0  0
    3.8037   -1.8703   -3.6316 H   0  0  0  0  0  0  0  0  0  0  0  0
    5.2827   -1.7965   -2.6474 H   0  0  0  0  0  0  0  0  0  0  0  0
    3.9634    1.7046   -2.4566 H   0  0  0  0  0  0  0  0  0  0  0  0
    2.3079    1.0958   -2.2369 H   0  0  0  0  0  0  0  0  0  0  0  0
    2.6472    1.7932   -4.5885 H   0  0  0  0  0  0  0  0  0  0  0  0
    2.3227    0.0617   -4.4568 H   0  0  0  0  0  0  0  0  0  0  0  0
    3.1980    0.7519   -0.0689 H   0  0  0  0  0  0  0  0  0  0  0  0
    2.0664    1.8250    2.7086 H   0  0  0  0  0  0  0  0  0  0  0  0
   -0.3113    3.1401    7.5558 H   0  0  0  0  0  0  0  0  0  0  0  0
    1.2676    2.5040    7.0841 H   0  0  0  0  0  0  0  0  0  0  0  0
    0.6374    3.9832    6.3277 H   0  0  0  0  0  0  0  0  0  0  0  0
   -0.6033    4.2659    4.1342 H   0  0  0  0  0  0  0  0  0  0  0  0
   -3.1583    2.8102    3.2110 H   0  0  0  0  0  0  0  0  0  0  0  0
   -1.5402    5.1403    2.0228 H   0  0  0  0  0  0  0  0  0  0  0  0
   -3.0535    6.0585    0.0016 H   0  0  0  0  0  0  0  0  0  0  0  0
   -4.5416    6.4900    0.8637 H   0  0  0  0  0  0  0  0  0  0  0  0
   -2.9727    6.8772    1.5959 H   0  0  0  0  0  0  0  0  0  0  0  0
   -1.7985    4.1792   -0.2312 H   0  0  0  0  0  0  0  0  0  0  0  0
    0.1673    2.7623   -0.1008 H   0  0  0  0  0  0  0  0  0  0  0  0
    0.2966    3.9213    1.2107 H   0  0  0  0  0  0  0  0  0  0  0  0
   -0.2283    2.2609    1.5503 H   0  0  0  0  0  0  0  0  0  0  0  0
   -2.7951    1.6625    1.1755 H   0  0  0  0  0  0  0  0  0  0  0  0
   -6.0731    4.2496   -0.1835 H   0  0  0  0  0  0  0  0  0  0  0  0
   -6.4347    2.7059   -1.0302 H   0  0  0  0  0  0  0  0  0  0  0  0
   -7.1087    3.0297    0.5818 H   0  0  0  0  0  0  0  0  0  0  0  0
   -1.1191    0.9663   -0.4988 H   0  0  0  0  0  0  0  0  0  0  0  0
   -1.3627    1.4473   -2.8978 H   0  0  0  0  0  0  0  0  0  0  0  0
   -1.3243    2.9780   -2.0555 H   0  0  0  0  0  0  0  0  0  0  0  0
   -2.8721    2.3326   -2.6221 H   0  0  0  0  0  0  0  0  0  0  0  0
   -4.0237    0.4152   -1.2276 H   0  0  0  0  0  0  0  0  0  0  0  0
   -2.3809   -1.3250    0.2116 H   0  0  0  0  0  0  0  0  0  0  0  0
   -2.6332   -0.3629   -3.1026 H   0  0  0  0  0  0  0  0  0  0  0  0
   -3.6843   -2.6773   -1.3947 H   0  0  0  0  0  0  0  0  0  0  0  0
   -3.5519   -2.6215   -3.1597 H   0  0  0  0  0  0  0  0  0  0  0  0
   -4.6859   -1.5618   -2.3360 H   0  0  0  0  0  0  0  0  0  0  0  0
   -0.4556   -0.7205   -1.9101 H   0  0  0  0  0  0  0  0  0  0  0  0
   -0.3558   -2.7397   -0.6534 H   0  0  0  0  0  0  0  0  0  0  0  0
   -1.4213   -3.3761   -3.1019 H   0  0  0  0  0  0  0  0  0  0  0  0
   -1.8171   -1.6261   -4.7876 H   0  0  0  0  0  0  0  0  0  0  0  0
   -0.2150   -0.9226   -4.5038 H   0  0  0  0  0  0  0  0  0  0  0  0
   -0.3749   -2.5207   -5.2507 H   0  0  0  0  0  0  0  0  0  0  0  0
    1.4307   -2.2618   -2.7128 H   0  0  0  0  0  0  0  0  0  0  0  0
    0.2317   -5.0810   -3.0323 H   0  0  0  0  0  0  0  0  0  0  0  0
    2.8069   -5.2126   -3.4957 H   0  0  0  0  0  0  0  0  0  0  0  0
    5.0199   -4.7145   -0.8526 H   0  0  0  0  0  0  0  0  0  0  0  0
    4.7461   -5.8114   -2.2121 H   0  0  0  0  0  0  0  0  0  0  0  0
    4.3040   -6.3174   -0.5763 H   0  0  0  0  0  0  0  0  0  0  0  0
    2.8280   -2.5855   -0.6934 H   0  0  0  0  0  0  0  0  0  0  0  0
    1.1996   -4.5999    1.7347 H   0  0  0  0  0  0  0  0  0  0  0  0
   -0.0863   -4.0729    3.7760 H   0  0  0  0  0  0  0  0  0  0  0  0
   -1.5135   -1.1964    7.3501 H   0  0  0  0  0  0  0  0  0  0  0  0
   -0.8919   -2.8104    7.0323 H   0  0  0  0  0  0  0  0  0  0  0  0
   -2.3611   -2.2368    6.1950 H   0  0  0  0  0  0  0  0  0  0  0  0
  1  2  1  0
  2  3  1  0
  3  4  1  0
  4  5  1  0
  5  6  1  0
  6  7  1  0
  5  8  1  0
  8  9  2  0
  9 10  1  0
 10 11  2  0
 11 12  1  0
 11 13  1  0
 13 14  2  0
 14 15  1  0
 15 16  2  0
 15 17  1  0
 17 18  1  1
 17 19  1  0
 19 20  1  0
 20 21  2  0
 21 22  1  0
 22 23  1  0
 23 24  1  0
 22 25  1  0
 25 26  1  0
 25 27  1  0
 27 28  1  0
 28 29  1  0
 29 30  1  0
 29 31  2  0
 27 32  1  0
 32 33  1  0
 32 34  1  0
 34 35  1  0
 34 36  1  0
 36 37  1  0
 36 38  1  0
 38 39  1  0
 38 40  1  0
 40 41  1  0
 40 42  1  0
 42 43  2  0
 43 44  1  0
 44 45  2  0
 45 46  1  0
 45 47  1  0
 47 48  2  0
 47 49  1  0
 49 50  1  0
 50 51  2  0
 51 52  1  0
 51 53  1  0
 53 54  2  0
 54 55  1  0
 54 56  1  0
 56 57  1  0
 56 58  2  0
 58 59  1  0
  7  2  1  0
 50 10  1  0
 53 13  1  0
 59 17  1  0
 58 14  1  0
  1 60  1  0
  1 61  1  0
  1 62  1  0
  3 63  1  0
  3 64  1  0
  4 65  1  0
  4 66  1  0
  6 67  1  0
  6 68  1  0
  7 69  1  0
  7 70  1  0
  9 71  1  0
 12 72  1  0
 18 73  1  0
 18 74  1  0
 18 75  1  0
 20 76  1  0
 21 77  1  0
 22 78  1  1
 24 79  1  0
 24 80  1  0
 24 81  1  0
 25 82  1  6
 26 83  1  0
 26 84  1  0
 26 85  1  0
 27 86  1  1
 30 87  1  0
 30 88  1  0
 30 89  1  0
 32 90  1  1
 33 91  1  0
 33 92  1  0
 33 93  1  0
 34 94  1  6
 35 95  1  0
 36 96  1  6
 37 97  1  0
 37 98  1  0
 37 99  1  0
 38100  1  1
 39101  1  0
 40102  1  6
 41103  1  0
 41104  1  0
 41105  1  0
 42106  1  0
 43107  1  0
 44108  1  0
 46109  1  0
 46110  1  0
 46111  1  0
 49112  1  0
 52113  1  0
 55114  1  0
 57115  1  0
 57116  1  0
 57117  1  0
M  END
