
     RDKit          3D

135137  0  0  0  0  0  0  0  0999 V2000
    1.4153   -3.7580   -0.5727 O   0  0  0  0  0  0  0  0  0  0  0  0
    1.1694   -3.3984    0.5696 C   0  0  0  0  0  0  0  0  0  0  0  0
    2.0631   -3.3354    1.5909 O   0  0  0  0  0  0  0  0  0  0  0  0
    3.4184   -3.7928    1.3410 C   0  0  2  0  0  0  0  0  0  0  0  0
    3.5864   -5.1778    2.0010 C   0  0  0  0  0  0  0  0  0  0  0  0
    2.7097   -6.2486    1.3616 C   0  0  0  0  0  0  0  0  0  0  0  0
    4.4214   -2.7187    1.8961 C   0  0  2  0  0  0  0  0  0  0  0  0
    5.7481   -3.2758    1.9014 O   0  0  0  0  0  0  0  0  0  0  0  0
    4.0772   -2.3379    3.3421 C   0  0  0  0  0  0  0  0  0  0  0  0
    4.4398   -1.4809    0.9370 C   0  0  2  0  0  0  0  0  0  0  0  0
    5.1151   -1.9058   -0.2670 O   0  0  0  0  0  0  0  0  0  0  0  0
    5.1023   -0.1925    1.4853 C   0  0  2  0  0  0  0  0  0  0  0  0
    4.8006    0.9951    0.5508 C   0  0  0  0  0  0  0  0  0  0  0  0
    5.2380    0.9040   -0.6753 N   0  0  0  0  0  0  0  0  0  0  0  0
    4.9729    2.0629   -1.4175 O   0  0  0  0  0  0  0  0  0  0  0  0
    4.8339    1.7308   -2.7996 C   0  0  0  0  0  0  0  0  0  0  0  0
    3.4492    1.5428   -3.0972 O   0  0  0  0  0  0  0  0  0  0  0  0
    3.2466    0.9599   -4.3896 C   0  0  0  0  0  0  0  0  0  0  0  0
    3.1213   -0.5590   -4.2750 C   0  0  0  0  0  0  0  0  0  0  0  0
    1.8595   -0.8731   -3.6741 O   0  0  0  0  0  0  0  0  0  0  0  0
    1.7684   -2.2587   -3.3643 C   0  0  0  0  0  0  0  0  0  0  0  0
    3.9887    2.1884    1.0971 C   0  0  2  0  0  0  0  0  0  0  0  0
    4.6744    2.7710    2.3362 C   0  0  0  0  0  0  0  0  0  0  0  0
    2.5252    1.7975    1.4089 C   0  0  0  0  0  0  0  0  0  0  0  0
    1.6230    1.5165    0.1753 C   0  0  2  0  0  0  0  0  0  0  0  0
    2.2301    0.5044   -0.6364 O   0  0  0  0  0  0  0  0  0  0  0  0
    1.4540    2.7920   -0.6663 C   0  0  0  0  0  0  0  0  0  0  0  0
    0.2155    0.9405    0.5840 C   0  0  2  0  0  0  0  0  0  0  0  0
   -0.5314    1.8510    1.3999 O   0  0  0  0  0  0  0  0  0  0  0  0
   -1.5516    2.5757    0.7162 C   0  0  2  0  0  0  0  0  0  0  0  0
   -1.2006    3.9621    0.6836 O   0  0  0  0  0  0  0  0  0  0  0  0
   -2.1514    4.7767   -0.0053 C   0  0  2  0  0  0  0  0  0  0  0  0
   -1.5996    6.1942   -0.0564 C   0  0  0  0  0  0  0  0  0  0  0  0
   -3.4996    4.7345    0.7243 C   0  0  0  0  0  0  0  0  0  0  0  0
   -3.9264    3.2798    0.8488 C   0  0  2  0  0  0  0  0  0  0  0  0
   -5.2603    3.0823    1.5702 N   0  0  0  0  0  4  0  0  0  0  0  0
   -5.3678    3.6503    2.9522 C   0  0  0  0  0  0  0  0  0  0  0  0
   -6.4505    3.4185    0.7257 C   0  0  0  0  0  0  0  0  0  0  0  0
   -2.8480    2.4300    1.5331 C   0  0  1  0  0  0  0  0  0  0  0  0
   -3.3695    1.1018    1.6517 O   0  0  0  0  0  0  0  0  0  0  0  0
    0.3230   -0.4509    1.3111 C   0  0  2  0  0  0  0  0  0  0  0  0
   -0.5055   -1.5336    0.5464 C   0  0  2  0  0  0  0  0  0  0  0  0
   -1.9092   -1.2368    0.7040 O   0  0  0  0  0  0  0  0  0  0  0  0
   -2.6369   -1.2665   -0.5342 C   0  0  2  0  0  0  0  0  0  0  0  0
   -2.5950    0.0407   -1.0964 O   0  0  0  0  0  0  0  0  0  0  0  0
   -3.3280    0.2022   -2.3169 C   0  0  2  0  0  0  0  0  0  0  0  0
   -4.7913   -0.2570   -2.1756 C   0  0  2  0  0  0  0  0  0  0  0  0
   -5.4745    0.7331   -1.3540 O   0  0  0  0  0  0  0  0  0  0  0  0
   -4.9700   -1.6317   -1.4784 C   0  0  2  0  0  0  0  0  0  0  0  0
   -6.3342   -1.7099   -0.9753 O   0  0  0  0  0  0  0  0  0  0  0  0
   -7.3557   -1.9786   -1.9328 C   0  0  0  0  0  0  0  0  0  0  0  0
   -4.0777   -1.6650   -0.2255 C   0  0  0  0  0  0  0  0  0  0  0  0
   -4.6600   -2.8336   -2.3837 C   0  0  0  0  0  0  0  0  0  0  0  0
   -2.5681   -0.3912   -3.4977 C   0  0  0  0  0  0  0  0  0  0  0  0
   -0.2068   -2.9705    1.0452 C   0  0  1  0  0  0  0  0  0  0  0  0
   -1.2113   -4.0235    0.5687 C   0  0  0  0  0  0  0  0  0  0  0  0
   -0.0254   -0.3719    2.8060 C   0  0  0  0  0  0  0  0  0  0  0  0
    6.6158   -0.2912    1.6818 C   0  0  0  0  0  0  0  0  0  0  0  0
    3.6051   -3.9176    0.2669 H   0  0  0  0  0  0  0  0  0  0  0  0
    4.6289   -5.5063    1.9305 H   0  0  0  0  0  0  0  0  0  0  0  0
    3.3231   -5.1290    3.0631 H   0  0  0  0  0  0  0  0  0  0  0  0
    2.9004   -6.3228    0.2864 H   0  0  0  0  0  0  0  0  0  0  0  0
    2.9222   -7.2241    1.8109 H   0  0  0  0  0  0  0  0  0  0  0  0
    1.6469   -6.0396    1.5140 H   0  0  0  0  0  0  0  0  0  0  0  0
    6.0499   -3.2095    0.9698 H   0  0  0  0  0  0  0  0  0  0  0  0
    4.8680   -1.7303    3.7947 H   0  0  0  0  0  0  0  0  0  0  0  0
    3.1333   -1.7875    3.4061 H   0  0  0  0  0  0  0  0  0  0  0  0
    4.0043   -3.2230    3.9820 H   0  0  0  0  0  0  0  0  0  0  0  0
    3.4125   -1.2490    0.6537 H   0  0  0  0  0  0  0  0  0  0  0  0
    5.1693   -1.1097   -0.8380 H   0  0  0  0  0  0  0  0  0  0  0  0
    4.6515    0.0440    2.4518 H   0  0  0  0  0  0  0  0  0  0  0  0
    5.4233    0.8388   -3.0459 H   0  0  0  0  0  0  0  0  0  0  0  0
    5.2089    2.5765   -3.3846 H   0  0  0  0  0  0  0  0  0  0  0  0
    4.0577    1.2402   -5.0714 H   0  0  0  0  0  0  0  0  0  0  0  0
    2.3125    1.3781   -4.7792 H   0  0  0  0  0  0  0  0  0  0  0  0
    3.1537   -1.0113   -5.2718 H   0  0  0  0  0  0  0  0  0  0  0  0
    3.9315   -0.9640   -3.6589 H   0  0  0  0  0  0  0  0  0  0  0  0
    0.7867   -2.4455   -2.9215 H   0  0  0  0  0  0  0  0  0  0  0  0
    1.8627   -2.8601   -4.2735 H   0  0  0  0  0  0  0  0  0  0  0  0
    2.5437   -2.5385   -2.6453 H   0  0  0  0  0  0  0  0  0  0  0  0
    3.9835    2.9999    0.3658 H   0  0  0  0  0  0  0  0  0  0  0  0
    5.7355    2.9603    2.1423 H   0  0  0  0  0  0  0  0  0  0  0  0
    4.6044    2.1049    3.2016 H   0  0  0  0  0  0  0  0  0  0  0  0
    4.2096    3.7223    2.6175 H   0  0  0  0  0  0  0  0  0  0  0  0
    2.5504    0.9129    2.0530 H   0  0  0  0  0  0  0  0  0  0  0  0
    2.0604    2.5949    2.0036 H   0  0  0  0  0  0  0  0  0  0  0  0
    2.6602    0.9198   -1.4161 H   0  0  0  0  0  0  0  0  0  0  0  0
    0.7226    2.6369   -1.4673 H   0  0  0  0  0  0  0  0  0  0  0  0
    1.1379    3.6418   -0.0573 H   0  0  0  0  0  0  0  0  0  0  0  0
    2.3836    3.0787   -1.1657 H   0  0  0  0  0  0  0  0  0  0  0  0
   -0.3064    0.7605   -0.3620 H   0  0  0  0  0  0  0  0  0  0  0  0
   -1.6902    2.2170   -0.3078 H   0  0  0  0  0  0  0  0  0  0  0  0
   -2.2591    4.4050   -1.0323 H   0  0  0  0  0  0  0  0  0  0  0  0
   -1.4250    6.5852    0.9521 H   0  0  0  0  0  0  0  0  0  0  0  0
   -2.2825    6.8684   -0.5820 H   0  0  0  0  0  0  0  0  0  0  0  0
   -0.6317    6.2072   -0.5693 H   0  0  0  0  0  0  0  0  0  0  0  0
   -4.2452    5.3227    0.1790 H   0  0  0  0  0  0  0  0  0  0  0  0
   -3.3854    5.1766    1.7213 H   0  0  0  0  0  0  0  0  0  0  0  0
   -4.0957    2.8637   -0.1535 H   0  0  0  0  0  0  0  0  0  0  0  0
   -5.2663    2.0504    1.6901 H   0  0  0  0  0  0  0  0  0  0  0  0
   -5.3754    4.7409    2.8858 H   0  0  0  0  0  0  0  0  0  0  0  0
   -6.3025    3.2901    3.3912 H   0  0  0  0  0  0  0  0  0  0  0  0
   -4.5286    3.2970    3.5532 H   0  0  0  0  0  0  0  0  0  0  0  0
   -6.3487    2.9255   -0.2424 H   0  0  0  0  0  0  0  0  0  0  0  0
   -6.4974    4.5037    0.6047 H   0  0  0  0  0  0  0  0  0  0  0  0
   -7.3436    3.0478    1.2359 H   0  0  0  0  0  0  0  0  0  0  0  0
   -2.6566    2.7849    2.5522 H   0  0  0  0  0  0  0  0  0  0  0  0
   -2.6180    0.4791    1.5203 H   0  0  0  0  0  0  0  0  0  0  0  0
    1.3616   -0.7819    1.2554 H   0  0  0  0  0  0  0  0  0  0  0  0
   -0.2220   -1.4684   -0.5140 H   0  0  0  0  0  0  0  0  0  0  0  0
   -2.1790   -1.9870   -1.2173 H   0  0  0  0  0  0  0  0  0  0  0  0
   -3.3460    1.2874   -2.4821 H   0  0  0  0  0  0  0  0  0  0  0  0
   -5.2968   -0.2334   -3.1466 H   0  0  0  0  0  0  0  0  0  0  0  0
   -6.2124    0.2286   -0.9488 H   0  0  0  0  0  0  0  0  0  0  0  0
   -8.3215   -1.8337   -1.4406 H   0  0  0  0  0  0  0  0  0  0  0  0
   -7.2987   -1.2950   -2.7834 H   0  0  0  0  0  0  0  0  0  0  0  0
   -7.3055   -3.0170   -2.2708 H   0  0  0  0  0  0  0  0  0  0  0  0
   -4.1126   -2.6551    0.2457 H   0  0  0  0  0  0  0  0  0  0  0  0
   -4.4921   -0.9897    0.5347 H   0  0  0  0  0  0  0  0  0  0  0  0
   -3.5971   -2.9622   -2.5893 H   0  0  0  0  0  0  0  0  0  0  0  0
   -5.1709   -2.7442   -3.3487 H   0  0  0  0  0  0  0  0  0  0  0  0
   -5.0137   -3.7627   -1.9213 H   0  0  0  0  0  0  0  0  0  0  0  0
   -1.5927    0.1002   -3.5921 H   0  0  0  0  0  0  0  0  0  0  0  0
   -3.1171   -0.2450   -4.4327 H   0  0  0  0  0  0  0  0  0  0  0  0
   -2.3524   -1.4537   -3.3828 H   0  0  0  0  0  0  0  0  0  0  0  0
   -0.2385   -3.0151    2.1388 H   0  0  0  0  0  0  0  0  0  0  0  0
   -2.1998   -3.8502    1.0030 H   0  0  0  0  0  0  0  0  0  0  0  0
   -1.3036   -4.0317   -0.5223 H   0  0  0  0  0  0  0  0  0  0  0  0
   -0.8925   -5.0270    0.8737 H   0  0  0  0  0  0  0  0  0  0  0  0
   -1.0919   -0.2006    2.9748 H   0  0  0  0  0  0  0  0  0  0  0  0
    0.5292    0.4353    3.2958 H   0  0  0  0  0  0  0  0  0  0  0  0
    0.2497   -1.2937    3.3265 H   0  0  0  0  0  0  0  0  0  0  0  0
    7.1303   -0.5964    0.7647 H   0  0  0  0  0  0  0  0  0  0  0  0
    6.8685   -1.0073    2.4686 H   0  0  0  0  0  0  0  0  0  0  0  0
    7.0318    0.6783    1.9775 H   0  0  0  0  0  0  0  0  0  0  0  0
  1  2  2  0
  2  3  1  0
  3  4  1  0
  4  5  1  0
  5  6  1  0
  4  7  1  0
  7  8  1  1
  7  9  1  0
  7 10  1  0
 10 11  1  0
 10 12  1  0
 12 13  1  0
 13 14  2  0
 14 15  1  0
 15 16  1  0
 16 17  1  0
 17 18  1  0
 18 19  1  0
 19 20  1  0
 20 21  1  0
 13 22  1  0
 22 23  1  0
 22 24  1  0
 24 25  1  0
 25 26  1  6
 25 27  1  0
 25 28  1  0
 28 29  1  0
 29 30  1  0
 30 31  1  0
 31 32  1  0
 32 33  1  0
 32 34  1  0
 34 35  1  0
 35 36  1  0
 36 37  1  0
 36 38  1  0
 35 39  1  0
 39 40  1  0
 28 41  1  0
 41 42  1  0
 42 43  1  0
 43 44  1  0
 44 45  1  0
 45 46  1  0
 46 47  1  0
 47 48  1  0
 47 49  1  0
 49 50  1  1
 50 51  1  0
 49 52  1  0
 49 53  1  0
 46 54  1  0
 42 55  1  0
 55 56  1  0
 41 57  1  0
 12 58  1  0
 39 30  1  0
 52 44  1  0
 55  2  1  0
  4 59  1  6
  5 60  1  0
  5 61  1  0
  6 62  1  0
  6 63  1  0
  6 64  1  0
  8 65  1  0
  9 66  1  0
  9 67  1  0
  9 68  1  0
 10 69  1  6
 11 70  1  0
 12 71  1  1
 16 72  1  0
 16 73  1  0
 18 74  1  0
 18 75  1  0
 19 76  1  0
 19 77  1  0
 21 78  1  0
 21 79  1  0
 21 80  1  0
 22 81  1  6
 23 82  1  0
 23 83  1  0
 23 84  1  0
 24 85  1  0
 24 86  1  0
 26 87  1  0
 27 88  1  0
 27 89  1  0
 27 90  1  0
 28 91  1  6
 30 92  1  6
 32 93  1  6
 33 94  1  0
 33 95  1  0
 33 96  1  0
 34 97  1  0
 34 98  1  0
 35 99  1  6
 36100  1  0
 37101  1  0
 37102  1  0
 37103  1  0
 38104  1  0
 38105  1  0
 38106  1  0
 39107  1  1
 40108  1  0
 41109  1  1
 42110  1  6
 44111  1  6
 46112  1  6
 47113  1  6
 48114  1  0
 51115  1  0
 51116  1  0
 51117  1  0
 52118  1  0
 52119  1  0
 53120  1  0
 53121  1  0
 53122  1  0
 54123  1  0
 54124  1  0
 54125  1  0
 55126  1  1
 56127  1  0
 56128  1  0
 56129  1  0
 57130  1  0
 57131  1  0
 57132  1  0
 58133  1  0
 58134  1  0
 58135  1  0
M  CHG  1  36   1
M  END
