
     RDKit          3D

 68 69  0  0  0  0  0  0  0  0999 V2000
   -1.1959    4.3947    0.2637 C   0  0  0  0  0  0  0  0  0  0  0  0
   -0.2286    4.4817    1.3177 C   0  0  0  0  0  0  0  0  0  0  0  0
    1.2375    4.4576    1.2941 C   0  0  0  0  0  0  0  0  0  0  0  0
    1.9802    3.2641    0.9382 C   0  0  0  0  0  0  0  0  0  0  0  0
    1.4883    2.5256    0.0063 O   0  0  0  0  0  0  0  0  0  0  0  0
    3.1564    2.5934    1.3217 N   0  0  0  0  0  0  0  0  0  0  0  0
    3.5539    1.3149    0.6116 C   0  0  1  0  0  0  0  0  0  0  0  0
    4.9858    1.1412    0.7631 C   0  0  0  0  0  0  0  0  0  0  0  0
    2.5943    0.3145    1.1043 C   0  0  0  0  0  0  0  0  0  0  0  0
    1.7235    0.8120    1.9679 O   0  0  0  0  0  0  0  0  0  0  0  0
    2.1657   -1.0100    1.0657 N   0  0  0  0  0  0  0  0  0  0  0  0
    0.8829   -1.3836    1.8195 C   0  0  0  0  0  0  0  0  0  0  0  0
   -0.2678   -1.0199    1.0410 C   0  0  0  0  0  0  0  0  0  0  0  0
    0.0099   -0.4836   -0.1395 O   0  0  0  0  0  0  0  0  0  0  0  0
   -1.6648   -1.0176    1.0830 N   0  0  0  0  0  0  0  0  0  0  0  0
   -2.4511   -0.5177   -0.0659 C   0  0  1  0  0  0  0  0  0  0  0  0
   -3.8379   -0.9929    0.0036 C   0  0  0  0  0  0  0  0  0  0  0  0
   -3.8691   -2.4709   -0.0277 C   0  0  0  0  0  0  0  0  0  0  0  0
   -3.8287   -3.1493   -1.2480 C   0  0  0  0  0  0  0  0  0  0  0  0
   -3.8775   -4.5199   -1.3111 C   0  0  0  0  0  0  0  0  0  0  0  0
   -3.9680   -5.2773   -0.1746 C   0  0  0  0  0  0  0  0  0  0  0  0
   -3.9600   -3.2298    1.1036 C   0  0  0  0  0  0  0  0  0  0  0  0
   -4.0096   -4.6345    1.0383 C   0  0  0  0  0  0  0  0  0  0  0  0
   -2.2266    0.9004   -0.4041 C   0  0  0  0  0  0  0  0  0  0  0  0
   -2.9814    1.2698   -1.4088 O   0  0  0  0  0  0  0  0  0  0  0  0
   -1.4761    1.9748   -0.0068 N   0  0  0  0  0  0  0  0  0  0  0  0
   -1.4160    3.3058   -0.6669 C   0  0  2  0  0  0  0  0  0  0  0  0
   -0.6022    3.2811   -1.9347 C   0  0  0  0  0  0  0  0  0  0  0  0
    2.7979   -2.1127    0.5219 C   0  0  0  0  0  0  0  0  0  0  0  0
    2.5550   -2.3805   -0.9699 C   0  0  0  0  0  0  0  0  0  0  0  0
    2.9451   -1.2082   -1.8349 C   0  0  0  0  0  0  0  0  0  0  0  0
    1.2936   -3.0661   -1.2792 C   0  0  0  0  0  0  0  0  0  0  0  0
   -2.2262    4.7390    0.7032 H   0  0  0  0  0  0  0  0  0  0  0  0
   -1.0191    5.3257   -0.4128 H   0  0  0  0  0  0  0  0  0  0  0  0
   -0.4565    5.5198    1.8335 H   0  0  0  0  0  0  0  0  0  0  0  0
   -0.5870    3.8476    2.2552 H   0  0  0  0  0  0  0  0  0  0  0  0
    1.6742    5.0302    2.1607 H   0  0  0  0  0  0  0  0  0  0  0  0
    1.5094    5.2111    0.4343 H   0  0  0  0  0  0  0  0  0  0  0  0
    3.8181    2.7984    2.0110 H   0  0  0  0  0  0  0  0  0  0  0  0
    3.3400    1.5200   -0.5010 H   0  0  0  0  0  0  0  0  0  0  0  0
    5.4576    1.9720    1.3297 H   0  0  0  0  0  0  0  0  0  0  0  0
    5.5286    1.1205   -0.2085 H   0  0  0  0  0  0  0  0  0  0  0  0
    5.2088    0.1922    1.3391 H   0  0  0  0  0  0  0  0  0  0  0  0
    1.0281   -0.9864    2.8170 H   0  0  0  0  0  0  0  0  0  0  0  0
    0.9683   -2.4828    1.9071 H   0  0  0  0  0  0  0  0  0  0  0  0
   -2.2239   -1.3176    1.8441 H   0  0  0  0  0  0  0  0  0  0  0  0
   -1.9869   -1.0162   -1.0146 H   0  0  0  0  0  0  0  0  0  0  0  0
   -4.3801   -0.5713   -0.8978 H   0  0  0  0  0  0  0  0  0  0  0  0
   -4.3742   -0.6589    0.9364 H   0  0  0  0  0  0  0  0  0  0  0  0
   -3.7565   -2.5244   -2.1424 H   0  0  0  0  0  0  0  0  0  0  0  0
   -3.8447   -5.0161   -2.2643 H   0  0  0  0  0  0  0  0  0  0  0  0
   -4.0079   -6.3739   -0.2031 H   0  0  0  0  0  0  0  0  0  0  0  0
   -4.0084   -2.7634    2.0603 H   0  0  0  0  0  0  0  0  0  0  0  0
   -4.0804   -5.2282    1.9276 H   0  0  0  0  0  0  0  0  0  0  0  0
   -0.8957    2.0186    0.8052 H   0  0  0  0  0  0  0  0  0  0  0  0
   -2.4849    3.4762   -1.1102 H   0  0  0  0  0  0  0  0  0  0  0  0
   -1.1722    3.5629   -2.8425 H   0  0  0  0  0  0  0  0  0  0  0  0
   -0.1831    2.2762   -2.1487 H   0  0  0  0  0  0  0  0  0  0  0  0
    0.1751    4.0688   -1.8274 H   0  0  0  0  0  0  0  0  0  0  0  0
    2.3888   -3.1123    0.9511 H   0  0  0  0  0  0  0  0  0  0  0  0
    3.8911   -2.3017    0.7643 H   0  0  0  0  0  0  0  0  0  0  0  0
    3.3780   -3.1529   -1.2588 H   0  0  0  0  0  0  0  0  0  0  0  0
    3.1730   -1.6007   -2.8691 H   0  0  0  0  0  0  0  0  0  0  0  0
    3.8562   -0.7673   -1.3804 H   0  0  0  0  0  0  0  0  0  0  0  0
    2.0970   -0.5308   -1.9111 H   0  0  0  0  0  0  0  0  0  0  0  0
    0.6085   -2.4486   -1.9341 H   0  0  0  0  0  0  0  0  0  0  0  0
    1.4136   -4.0468   -1.8227 H   0  0  0  0  0  0  0  0  0  0  0  0
    0.6645   -3.3365   -0.3858 H   0  0  0  0  0  0  0  0  0  0  0  0
  1  2  1  0
  2  3  1  0
  3  4  1  0
  4  5  2  0
  4  6  1  0
  6  7  1  0
  7  8  1  0
  7  9  1  0
  9 10  2  0
  9 11  1  0
 11 12  1  0
 12 13  1  0
 13 14  2  0
 13 15  1  0
 15 16  1  0
 16 17  1  0
 17 18  1  0
 18 19  2  0
 19 20  1  0
 20 21  2  0
 18 22  1  0
 22 23  2  0
 16 24  1  0
 24 25  2  0
 24 26  1  0
 26 27  1  0
 27 28  1  0
 11 29  1  0
 29 30  1  0
 30 31  1  0
 30 32  1  0
 27  1  1  0
 23 21  1  0
  1 33  1  0
  1 34  1  0
  2 35  1  0
  2 36  1  0
  3 37  1  0
  3 38  1  0
  6 39  1  0
  7 40  1  6
  8 41  1  0
  8 42  1  0
  8 43  1  0
 12 44  1  0
 12 45  1  0
 15 46  1  0
 16 47  1  6
 17 48  1  0
 17 49  1  0
 19 50  1  0
 20 51  1  0
 21 52  1  0
 22 53  1  0
 23 54  1  0
 26 55  1  0
 27 56  1  6
 28 57  1  0
 28 58  1  0
 28 59  1  0
 29 60  1  0
 29 61  1  0
 30 62  1  0
 31 63  1  0
 31 64  1  0
 31 65  1  0
 32 66  1  0
 32 67  1  0
 32 68  1  0
M  END
